Version 4
SHEET 1 1172 680
WIRE 576 80 576 64
WIRE 832 96 672 96
WIRE 832 128 832 96
WIRE 576 176 576 160
WIRE 576 192 576 176
WIRE 672 208 672 96
WIRE 672 208 624 208
WIRE 576 240 528 240
WIRE 528 288 528 240
WIRE 576 288 528 288
WIRE 528 368 528 288
FLAG 832 208 0
FLAG 528 448 0
FLAG 576 176 out
FLAG 576 64 0
SYMBOL voltage 832 112 M0
WINDOW 3 -113 135 Left 2
WINDOW 123 0 0 Left 0
WINDOW 39 0 0 Left 0
SYMATTR Value PULSE(0 3.3 1n 1n 1n 1u 2u)
SYMATTR InstName V1
SYMBOL voltage 528 352 M0
WINDOW 123 0 0 Left 0
WINDOW 39 0 0 Left 0
SYMATTR InstName V2
SYMATTR Value 3.3
SYMBOL pmos4 624 288 R180
SYMATTR InstName M1
SYMATTR Value2 l=l w=w
SYMBOL res 560 64 R0
SYMATTR InstName R1
SYMATTR Value 50k
TEXT 976 296 Right 2 !.inc library.mod
TEXT 272 168 Left 2 !.tran 10u
TEXT 816 352 Left 2 !.param w=1.2u+3.2u
TEXT 816 384 Left 2 !.param l=0.35u
TEXT 824 424 Left 2 !.step param s 0 4u 0.2u
