Version 4
SHEET 1 880 680
WIRE -400 0 -576 0
WIRE -224 0 -400 0
WIRE -400 16 -400 0
FLAG 32 96 Vdd
IOPIN 32 96 In
FLAG 32 176 0
FLAG -80 240 0
FLAG 16 320 0
FLAG -400 96 0
FLAG -576 -48 0
FLAG -224 -48 0
FLAG -224 -96 Vdd
IOPIN -224 -96 In
FLAG -576 -96 Vdd
IOPIN -576 -96 In
FLAG -624 -16 inp
IOPIN -624 -16 In
FLAG -80 160 inp
IOPIN -80 160 In
FLAG 16 240 inn
IOPIN 16 240 In
FLAG -272 -16 inn
IOPIN -272 -16 In
SYMBOL voltage 32 80 R0
WINDOW 123 0 0 Left 0
WINDOW 39 0 0 Left 0
SYMATTR InstName V1
SYMATTR Value 3.3
SYMBOL voltage 16 224 R0
WINDOW 123 0 0 Left 0
WINDOW 39 0 0 Left 0
SYMATTR InstName V3
SYMATTR Value PULSE(2.65 0.65 1n 20n 20n 20n 20n)
SYMBOL voltage -80 144 R0
WINDOW 3 -413 135 Left 2
WINDOW 123 0 0 Left 0
WINDOW 39 0 0 Left 0
SYMATTR InstName V2
SYMATTR Value PULSE(0.65 2.65 1n 20n 20n 20n 20n)
SYMBOL nmos4 -624 -96 R0
SYMATTR InstName M1
SYMATTR Value2 l=0.4u w=0.35u
SYMBOL nmos4 -272 -96 R0
SYMATTR InstName M2
SYMATTR Value2 l=0.4u w=0.35u
SYMBOL current -400 16 R0
WINDOW 123 0 0 Left 0
WINDOW 39 0 0 Left 0
SYMATTR InstName I1
SYMATTR Value 10µ
TEXT 264 72 Left 2 !.inc library.mod\n.tran 22n
