Version 4
SHEET 1 880 680
WIRE 352 80 128 80
WIRE 608 80 432 80
WIRE 816 80 608 80
WIRE 608 96 608 80
WIRE 816 96 816 80
WIRE 128 192 128 160
WIRE 608 208 608 160
WIRE 816 208 816 176
FLAG 128 192 0
FLAG 608 208 0
FLAG 816 208 0
SYMBOL voltage 128 64 R0
WINDOW 123 24 124 Left 2
WINDOW 39 0 0 Left 0
SYMATTR Value2 AC 1 0
SYMATTR InstName V1
SYMATTR Value SINE(0 5 1u 1n 1n 19u 20u)
SYMBOL res 448 64 R90
WINDOW 0 0 56 VBottom 2
WINDOW 3 32 56 VTop 2
SYMATTR InstName R1
SYMATTR Value {r}
SYMBOL cap 592 96 R0
SYMATTR InstName C1
SYMATTR Value {c}
SYMBOL res 800 80 R0
SYMATTR InstName R2
SYMATTR Value 10k
TEXT 128 240 Left 2 !.ac dec 10 10k 10meg
TEXT 128 272 Left 2 !.step param r 1k 10k 2.5k
TEXT 136 304 Left 2 !.param c= 1e-6/r
TEXT 200 -144 Left 2 !.meas AC gmax max mag(V(n002))
TEXT 200 -112 Left 2 !.meas AC fc WHEN mag(V(n002)) =gmax/sqrt(2) FALL=1
