Version 4
SHEET 1 880 680
WIRE 336 80 128 80
WIRE 496 80 400 80
WIRE 608 80 496 80
WIRE 128 192 128 160
WIRE 608 208 608 160
FLAG 128 192 0
FLAG 608 208 0
FLAG 496 80 out
SYMBOL cap 400 64 R90
WINDOW 0 0 32 VBottom 2
WINDOW 3 32 32 VTop 2
SYMATTR InstName C1
SYMATTR Value 1n
SYMBOL voltage 128 64 R0
WINDOW 123 0 0 Left 0
WINDOW 39 0 0 Left 0
SYMATTR InstName V1
SYMATTR Value PULSE(0 2 10u 1n 1n 50u 0.1m)
SYMBOL res 592 64 R0
SYMATTR InstName R1
SYMATTR Value 5k
TEXT 88 232 Left 2 !.tran 1m
