Version 4
SHEET 1 880 680
WIRE 608 80 128 80
WIRE 608 96 608 80
WIRE 128 192 128 160
WIRE 608 208 608 160
FLAG 128 192 0
FLAG 608 208 0
SYMBOL cap 592 96 R0
SYMATTR InstName C1
SYMATTR Value 1n
SYMBOL voltage 128 64 R0
WINDOW 123 0 0 Left 0
WINDOW 39 0 0 Left 0
SYMATTR InstName V1
SYMATTR Value PULSE(0 5 1n 10n 5n 5n 30n)
TEXT 88 232 Left 2 !.tran 33n
